wipe
model BasicBuilder -ndm 3 -ndf 6
node 1 0 0 0 
node 2 0 0 0
fix 1 1 1 1 1 1 1
fix 2 0 1 1 1 0 0
uniaxialMaterial Steel01 1 319.3 210000 0.1    
uniaxialMaterial Concrete01 2 28 0.002 35 0.0035
section Fiber 1 -GJ 100000000 {
fiber 81 35 314.159265358979 1
fiber 127 35 314.159265358979 1
fiber 173 35 314.159265358979 1
fiber 219 35 314.159265358979 1
fiber 265 35 314.159265358979 1
fiber 265 81 314.159265358979 1
fiber 265 127 314.159265358979 1
fiber 265 173 314.159265358979 1
fiber 265 219 314.159265358979 1
fiber 265 265 314.159265358979 1
fiber 219 265 314.159265358979 1
fiber 173 265 314.159265358979 1
fiber 127 265 314.159265358979 1
fiber 80.9999999999999 265 314.159265358979 1
fiber 34.9999999999999 265 314.159265358979 1
fiber 35 219 314.159265358979 1
fiber 35 173 314.159265358979 1
fiber 35 127 314.159265358979 1
fiber 35 81 314.159265358979 1
fiber 35 35 314.159265358979 1
# ... 196 like lines cut
}
element zeroLengthSection 1 1 2 1
pattern Plain 1 "Constant" {
	load 2 -10 0 0 0 0 0}
integrator LoadControl 0
system BandGeneral
test NormUnbalance 1e-10 1000
numberer RCM
constraints Plain
algorithm Newton
analysis Static
analyze 1
loadConst -time 0.0
recorder Element -file FiberResults/MKsectionForce.out -ele 1 section force
recorder Element -file FiberResults/MKsectionDef.out -ele 1 section deformation
recorder Element -file FiberResults/MKsectionStressFiber_0.out -ele 1 section fiber 81 35 stressStrain
recorder Element -file FiberResults/MKsectionStressFiber_1.out -ele 1 section fiber 127 35 stressStrain
recorder Element -file FiberResults/MKsectionStressFiber_2.out -ele 1 section fiber 173 35 stressStrain
recorder Element -file FiberResults/MKsectionStressFiber_3.out -ele 1 section fiber 219 35 stressStrain
recorder Element -file FiberResults/MKsectionStressFiber_4.out -ele 1 section fiber 265 35 stressStrain
recorder Element -file FiberResults/MKsectionStressFiber_5.out -ele 1 section fiber 265 81 stressStrain
recorder Element -file FiberResults/MKsectionStressFiber_6.out -ele 1 section fiber 265 127 stressStrain
recorder Element -file FiberResults/MKsectionStressFiber_7.out -ele 1 section fiber 265 173 stressStrain
recorder Element -file FiberResults/MKsectionStressFiber_8.out -ele 1 section fiber 265 219 stressStrain
recorder Element -file FiberResults/MKsectionStressFiber_9.out -ele 1 section fiber 265 265 stressStrain
recorder Element -file FiberResults/MKsectionStressFiber_10.out -ele 1 section fiber 219 265 stressStrain
recorder Element -file FiberResults/MKsectionStressFiber_11.out -ele 1 section fiber 173 265 stressStrain
recorder Element -file FiberResults/MKsectionStressFiber_12.out -ele 1 section fiber 127 265 stressStrain
recorder Element -file FiberResults/MKsectionStressFiber_13.out -ele 1 section fiber 80.9999999999999 265 stressStrain
recorder Element -file FiberResults/MKsectionStressFiber_14.out -ele 1 section fiber 34.9999999999999 265 stressStrain
recorder Element -file FiberResults/MKsectionStressFiber_15.out -ele 1 section fiber 35 219 stressStrain
recorder Element -file FiberResults/MKsectionStressFiber_16.out -ele 1 section fiber 35 173 stressStrain
recorder Element -file FiberResults/MKsectionStressFiber_17.out -ele 1 section fiber 35 127 stressStrain
recorder Element -file FiberResults/MKsectionStressFiber_18.out -ele 1 section fiber 35 81 stressStrain
recorder Element -file FiberResults/MKsectionStressFiber_19.out -ele 1 section fiber 35 35 stressStrain
# ... 196 like lines cut
pattern Plain 2 "Linear" {
	load 2 0 0 0 0 1 0}
integrator DisplacementControl 2 5 6.66666666666667E-10
analyze 3000
wipe
