wipe
model BasicBuilder -ndm 3 -ndf 6
node 1 0 0 0 
node 2 0 0 0
fix 1 1 1 1 1 1 1
fix 2 0 1 1 1 0 0
uniaxialMaterial ReinforcingSteel 11 450000 540000 200000000 2000000 0.008 0.075
uniaxialMaterial Concrete01 15 -25000 -0.002 -20000 -0.0035
section Fiber 1 -GJ 100000000 {
fiber -1.2000000000000002 -2.2 452.3893421169302 11
fiber -0.8571428571428572 -2.2 452.3893421169302 11
fiber -0.5142857142857143 -2.2 452.3893421169302 11
fiber -0.17142857142857149 -2.2 452.3893421169302 11
fiber 0.17142857142857149 -2.2 452.3893421169302 11
fiber 0.5142857142857141 -2.2 452.3893421169302 11
fiber 0.8571428571428569 -2.2 452.3893421169302 11
fiber 1.2000000000000002 -2.2 452.3893421169302 11
fiber 1.2000000000000002 2.2 452.3893421169302 11
fiber 0 2.2 452.3893421169302 11
fiber -1.2000000000000002 2.2 452.3893421169302 11
fiber -1.4117646813392637 -2.413793087005615 0.03042597775527156 15
fiber -1.4117646813392637 2.413793087005615 0.03042597775527156 15
fiber 1.4117646813392637 -2.413793087005615 0.03042597775527156 15
fiber 1.4117646813392637 2.413793087005615 0.03042597775527156 15
fiber 1.4117646813392637 2.2413792610168453 0.03042597775527156 15
fiber 1.4117646813392637 2.068965435028076 0.03042597775527156 15
fiber 1.4117646813392637 1.896551728248596 0.030425935681392957 15
fiber 1.4117646610035457 1.7241380810737472 0.03042595671833226 15
fiber 1.4117647016749821 1.5517243742942948 0.03042595671833226 15
# ... 484 like lines cut
}
element zeroLengthSection 1 1 2 1
timeSeries Constant 1
pattern Plain 1 1 {
	load 2 -400 0 0 0 0 0}
integrator LoadControl 0
system BandGeneral
test NormDispIncr 1.0e-8 1000
numberer RCM
constraints Plain
algorithm Newton
analysis Static
if {[analyze 1] != 0} {
	puts "ALPACA_MK_AXIAL_FAILED"
	wipe
	exit 1
}
loadConst -time 0.0
recorder Element -file FiberResults/MKsectionForce.out -ele 1 section force
recorder Element -file FiberResults/MKsectionDef.out -ele 1 section deformation
recorder Element -file FiberResults/MKfiberData.out -ele 1 section fiberData
timeSeries Linear 2
pattern Plain 2 2 {
	load 2 0 0 0 0 1 0}
integrator DisplacementControl 2 5 2E-05
if {[analyze 1000] != 0} {
	puts "ALPACA_MK_CURVATURE_INCOMPLETE"
}
wipe

